1UK0_ligand
  PyMOL3.1          3D                             0

 28 31  0  0  0  0  0  0  0  0999 V2000
    7.0370   -7.5740   32.4270 C   0  0  0  0  0  0  0  0  0  0  0  0
    7.6430   -6.3620   32.5520 C   0  0  0  0  0  0  0  0  0  0  0  0
    7.1280   -5.5140   33.4930 C   0  0  0  0  0  0  0  0  0  0  0  0
    6.0830   -5.8630   34.3050 C   0  0  0  0  0  0  0  0  0  0  0  0
    5.4480   -7.0710   34.2310 C   0  0  0  0  0  0  0  0  0  0  0  0
    5.9450   -7.9070   33.2540 C   0  0  0  0  0  0  0  0  0  0  0  0
    8.8280   -6.0100   31.7050 C   0  0  0  0  0  0  0  0  0  0  0  0
    7.6270   -4.2770   33.5690 N   0  0  0  0  0  0  0  0  0  0  0  0
    7.0720   -3.3030   34.2440 C   0  0  0  0  0  0  0  0  0  0  0  0
    6.0080   -3.5860   34.9520 N   0  0  0  0  0  0  0  0  0  0  0  0
    5.6180   -4.8250   35.1480 C   0  0  0  0  0  0  0  0  0  0  0  0
    4.8250   -5.0650   36.0130 O   0  0  0  0  0  0  0  0  0  0  0  0
    7.8290   -2.0230   34.4140 C   0  0  0  0  0  0  0  0  0  0  0  0
    6.9420   -0.7860   34.5150 C   0  0  0  0  0  0  0  0  0  0  0  0
    7.0100    0.1110   33.3230 C   0  0  0  0  0  0  0  0  0  0  0  0
    8.3280    0.7270   33.3880 N   0  0  0  0  0  0  0  0  0  0  0  0
    9.1010    0.7190   32.1530 C   0  0  0  0  0  0  0  0  0  0  0  0
    8.4580    1.6530   31.1910 C   0  0  0  0  0  0  0  0  0  0  0  0
    7.7330    2.6910   31.5380 C   0  0  0  0  0  0  0  0  0  0  0  0
    7.4740    2.9150   33.0090 C   0  0  0  0  0  0  0  0  0  0  0  0
    8.3310    2.0400   33.9090 C   0  0  0  0  0  0  0  0  0  0  0  0
    7.3850    3.7690   30.6040 C   0  0  0  0  0  0  0  0  0  0  0  0
    8.0180    4.0080   29.3980 C   0  0  0  0  0  0  0  0  0  0  0  0
    7.7990    5.2390   28.8330 C   0  0  0  0  0  0  0  0  0  0  0  0
    7.0120    6.1780   29.4630 C   0  0  0  0  0  0  0  0  0  0  0  0
    6.3660    5.9710   30.6270 C   0  0  0  0  0  0  0  0  0  0  0  0
    6.5260    4.7310   31.1360 C   0  0  0  0  0  0  0  0  0  0  0  0
    6.7170    7.3180   28.8710 F   0  0  0  0  0  0  0  0  0  0  0  0
  1  2  4  0  0  0  0
  1  6  4  0  0  0  0
  2  3  4  0  0  0  0
  2  7  1  0  0  0  0
  3  4  4  0  0  0  0
  3  8  4  0  0  0  0
  4  5  4  0  0  0  0
  4 11  4  0  0  0  0
  5  6  4  0  0  0  0
  8  9  4  0  0  0  0
  9 10  4  0  0  0  0
  9 13  1  0  0  0  0
 10 11  4  0  0  0  0
 11 12  2  0  0  0  0
 13 14  1  0  0  0  0
 14 15  1  0  0  0  0
 15 16  1  0  0  0  0
 16 17  1  0  0  0  0
 16 21  1  0  0  0  0
 17 18  1  0  0  0  0
 18 19  1  0  0  0  0
 19 20  1  0  0  0  0
 19 22  1  0  0  0  0
 20 21  1  0  0  0  0
 22 23  4  0  0  0  0
 22 27  4  0  0  0  0
 23 24  4  0  0  0  0
 24 25  4  0  0  0  0
 25 26  4  0  0  0  0
 25 28  1  0  0  0  0
 26 27  4  0  0  0  0
M  END
>  <pdb_header>
CRYST1  179.820   53.550   92.010  90.00 114.40  90.00 C 1 2 1       0


$$$$
